288
Lattice="33.337151 0.035285 0.03087 0.027151 25.621674 -0.000664 0.027093 9e-05 30.262626 " PBC="1 1 1" Properties="species:S:1:pos:R:3" Energy=" -5.302666"
Mo   0.051823  -0.017150  16.736001
Mo   2.819495   1.607633  16.734550
S    1.901722  -0.004881  18.317009
S    4.670803   1.619697  18.350205
S    4.667225   1.621074  15.121571
S    1.883895   0.016641  15.178867
Mo   5.601008   0.015314  16.738646
Mo   8.370835   1.601129  16.729171
S    7.461551   0.000839  18.317838
S   10.241841   1.624811  18.345207
S   10.239949   1.623684  15.148107
S    7.469557   0.000225  15.157843
Mo  11.153342   0.013578  16.742422
Mo  13.919499   1.603327  16.734368
S   13.001962   0.009014  18.344197
S   15.777897   1.619256  18.336078
S   15.791115   1.608757  15.140898
S   13.027890   0.009428  15.164736
Mo  16.705214   0.025789  16.744884
Mo  19.481897   1.625155  16.750122
S   18.570083   0.030683  18.331779
S   21.351537   1.617802  18.372045
S   21.351845   1.614720  15.154340
S   18.536969   0.040300  15.155039
Mo  22.260811   0.029451  16.746707
Mo  25.053380   1.608231  16.762117
S   24.109677   0.019383  18.346959
S   26.906545   1.654705  18.326533
S   26.909821   1.652719  15.150617
S   24.113436   0.019345  15.146772
Mo  27.835999   0.043639  16.762601
Mo  30.615058   1.629166  16.770634
S   29.676962   0.047529  18.367115
S   32.463230   1.629674  18.349704
S   32.455294   1.642489  15.160839
S   29.683523   0.004445  15.156591
Mo   0.040547   3.204299  16.731825
Mo   2.830441   4.804125  16.738942
S    1.893899   3.198965  18.338242
S    4.682583   4.808720  18.337618
S    4.657822   4.783196  15.143625
S    1.889267   3.183868  15.138313
Mo   5.612201   3.209123  16.732385
Mo   8.387407   4.815627  16.744762
S    7.470283   3.173526  18.326969
S   10.217687   4.792907  18.322686
S   10.234443   4.807068  15.144618
S    7.456100   3.204866  15.117033
Mo  11.161836   3.200266  16.744329
Mo  13.935774   4.818321  16.746337
S   13.011913   3.213312  18.350953
S   15.780827   4.826389  18.343823
S   15.799397   4.812307  15.150796
S   13.007566   3.215668  15.138922
Mo  16.708465   3.210058  16.746135
Mo  19.493795   4.819756  16.743930
S   18.570798   3.216931  18.335261
S   21.389460   4.841292  18.369967
S   21.383016   4.843676  15.157822
S   18.556227   3.202891  15.182350
Mo  22.256155   3.223554  16.752638
Mo  25.062332   4.834686  16.765945
S   24.112718   3.236833  18.337443
S   26.929791   4.860570  18.356444
S   26.877700   4.828221  15.164918
S   24.143952   3.244395  15.130373
Mo  27.818666   3.228493  16.756293
Mo  30.611384   4.835774  16.764692
S   29.681728   3.208009  18.352696
S   32.458862   4.840673  18.353476
S   32.459271   4.817968  15.150955
S   29.693635   3.230368  15.176714
Mo   0.049866   6.386896  16.731779
Mo   2.835929   8.016614  16.729107
S    1.897176   6.419696  18.310881
S    4.683345   8.012243  18.323808
S    4.667907   8.002904  15.134893
S    1.910609   6.417540  15.130676
Mo   5.610919   6.410696  16.748121
Mo   8.361093   8.018196  16.747016
S    7.440374   6.415985  18.356162
S   10.221218   8.028135  18.333666
S   10.231882   8.040355  15.157385
S    7.471802   6.406654  15.120086
Mo  11.155465   6.418442  16.743633
Mo  13.954145   8.023587  16.752086
S   13.005874   6.415778  18.322633
S   15.775398   8.023683  18.341112
S   15.794335   8.035415  15.151504
S   13.011632   6.426366  15.155641
Mo  16.708163   6.414393  16.736032
Mo  19.501697   8.033336  16.755240
S   18.594017   6.439852  18.326610
S   21.357116   8.027184  18.368076
S   21.346064   8.013544  15.171574
S   18.584538   6.446032  15.148594
Mo  22.262059   6.429661  16.746068
Mo  25.076958   8.042301  16.759352
S   24.144620   6.428234  18.335920
S   26.879176   8.025151  18.341068
S   26.887452   8.015945  15.148212
S   24.131631   6.415484  15.137181
Mo  27.825774   6.416463  16.747862
Mo  30.613075   8.043022  16.759923
S   29.674160   6.444315  18.351015
S   32.467997   8.036170  18.359426
S   32.459823   8.042602  15.169019
S   29.684279   6.429895  15.163781
Mo   0.047392   9.601107  16.721472
Mo   2.834061  11.204879  16.741872
S    1.883904   9.605064  18.334505
S    4.674115  11.210931  18.339500
S    4.686019  11.217111  15.137512
S    1.907941   9.610094  15.154062
Mo   5.596335   9.615062  16.733649
Mo   8.390572  11.206291  16.744838
S    7.441722   9.636015  18.331536
S   10.244482  11.211600  18.329373
S   10.236411  11.207897  15.148363
S    7.446038   9.613902  15.145132
Mo  11.185034   9.630943  16.736796
Mo  13.946501  11.217255  16.736353
S   13.007934   9.600284  18.317470
S   15.794607  11.247322  18.351664
S   15.789251  11.211214  15.151174
S   13.013789   9.626898  15.143701
Mo  16.721773   9.642263  16.737012
Mo  19.496251  11.228361  16.750870
S   18.580264   9.626839  18.334791
S   21.345762  11.216571  18.340964
S   21.375542  11.236672  15.181052
S   18.577380   9.615991  15.147280
Mo  22.288150   9.626436  16.763592
Mo  25.061765  11.238024  16.752670
S   24.117056   9.646612  18.340613
S   26.918361  11.223771  18.359463
S   26.901263  11.234024  15.141108
S   24.133317   9.637038  15.165555
Mo  27.819884   9.651825  16.759852
Mo  30.613722  11.242785  16.755779
S   29.681682   9.635745  18.339262
S   32.479921  11.258232  18.360339
S   32.469366  11.239339  15.160512
S   29.694577   9.615976  15.146407
Mo   0.064074  12.809503  16.722561
Mo   2.837883  14.431204  16.738615
S    1.903339  12.831508  18.348858
S    4.707368  14.402749  18.329758
S    4.707618  14.420245  15.159106
S    1.886897  12.821596  15.142444
Mo   5.618167  12.807885  16.737401
Mo   8.398247  14.419528  16.733408
S    7.453758  12.838922  18.349844
S   10.262913  14.414001  18.350968
S   10.247554  14.408642  15.136816
S    7.464203  12.823108  15.151015
Mo  11.167929  12.818167  16.748991
Mo  13.930977  14.422385  16.749471
S   13.038094  12.822331  18.346981
S   15.812399  14.401891  18.342417
S   15.812479  14.410508  15.122669
S   13.020257  12.841132  15.125194
Mo  16.722941  12.839673  16.746232
Mo  19.515776  14.441640  16.743823
S   18.571980  12.839767  18.371032
S   21.359765  14.416703  18.337786
S   21.357613  14.444414  15.132820
S   18.582272  12.831357  15.156511
Mo  22.274443  12.840976  16.763069
Mo  25.052296  14.436066  16.749924
S   24.119996  12.836717  18.352558
S   26.908566  14.428066  18.350669
S   26.918944  14.445444  15.150520
S   24.143263  12.829109  15.159391
Mo  27.848337  12.845249  16.758208
Mo  30.612658  14.445737  16.745166
S   29.673062  12.835335  18.352046
S   32.493812  14.456322  18.338042
S   32.473287  14.445476  15.159191
S   29.698624  12.838017  15.166613
Mo   0.050466  16.017252  16.721340
Mo   2.846906  17.604491  16.735044
S    1.913848  16.028617  18.329012
S    4.704393  17.633427  18.327793
S    4.689495  17.631080  15.141366
S    1.910756  15.993989  15.140291
Mo   5.610809  16.022901  16.746023
Mo   8.383905  17.628696  16.738340
S    7.478989  16.009456  18.329693
S   10.254553  17.616507  18.323682
S   10.252451  17.603649  15.136538
S    7.465214  15.998653  15.112116
Mo  11.177392  16.024601  16.739276
Mo  13.963721  17.618917  16.740558
S   13.022118  16.036590  18.367610
S   15.806978  17.619488  18.331694
S   15.811610  17.624653  15.169674
S   13.024313  16.030330  15.143982
Mo  16.720555  16.024019  16.732566
Mo  19.505069  17.645842  16.749269
S   18.565430  16.037987  18.369864
S   21.364410  17.613752  18.360603
S   21.355052  17.647311  15.175360
S   18.584717  16.018604  15.139807
Mo  22.282506  16.029512  16.752668
Mo  25.064311  17.639736  16.752558
S   24.134299  16.046876  18.336959
S   26.926780  17.677500  18.371802
S   26.911858  17.632077  15.166222
S   24.150848  16.039566  15.156862
Mo  27.836400  16.043853  16.754035
Mo  30.615959  17.642269  16.758804
S   29.676557  16.069109  18.347087
S   32.474283  17.643920  18.340774
S   32.468095  17.649383  15.163989
S   29.679134  16.048352  15.161482
Mo   0.071534  19.217090  16.730887
Mo   2.854678  20.820983  16.737739
S    1.929766  19.240341  18.308949
S    4.710049  20.831351  18.329260
S    4.716984  20.802376  15.153114
S    1.915067  19.212884  15.129763
Mo   5.616532  19.222741  16.737767
Mo   8.395759  20.830517  16.741533
S    7.476967  19.255206  18.334562
S   10.259076  20.810118  18.315299
S   10.261794  20.849222  15.147804
S    7.496292  19.219059  15.152902
Mo  11.168757  19.225115  16.741728
Mo  13.951995  20.831870  16.754493
S   13.051303  19.252594  18.324348
S   15.825259  20.816588  18.342109
S   15.792507  20.815937  15.170971
S   13.011429  19.231516  15.142097
Mo  16.733402  19.228383  16.746408
Mo  19.525035  20.840694  16.762624
S   18.589557  19.226488  18.388577
S   21.363456  20.840543  18.359179
S   21.374338  20.829211  15.143925
S   18.587598  19.226551  15.139925
Mo  22.282250  19.237238  16.747611
Mo  25.072544  20.837237  16.753834
S   24.158126  19.250760  18.332020
S   26.918863  20.826378  18.339230
S   26.919985  20.847617  15.140220
S   24.161604  19.252559  15.156717
Mo  27.847777  19.243572  16.769209
Mo  30.633403  20.847661  16.763165
S   29.696329  19.249435  18.354647
S   32.487524  20.844997  18.354270
S   32.484899  20.868467  15.170969
S   29.697705  19.224553  15.140264
Mo   0.064939  22.399164  16.720504
Mo   2.849541  24.022362  16.731675
S    1.921970  22.408183  18.342789
S    4.697235  24.033021  18.343778
S    4.703431  24.019876  15.138243
S    1.927130  22.398849  15.136000
Mo   5.630170  22.429723  16.739037
Mo   8.395639  24.022816  16.735392
S    7.468611  22.418323  18.342649
S   10.269735  24.028807  18.340767
S   10.259856  24.033884  15.143345
S    7.515919  22.430585  15.147393
Mo  11.159005  22.446636  16.740405
Mo  13.970608  24.025894  16.731090
S   13.015796  22.413806  18.340861
S   15.787988  24.024352  18.356896
S   15.824537  24.031930  15.140364
S   13.055231  22.454516  15.156008
Mo  16.743832  22.427001  16.746480
Mo  19.512945  24.022114  16.749805
S   18.590294  22.430470  18.354875
S   21.381092  24.063307  18.339053
S   21.365789  24.045997  15.154542
S   18.602863  22.451690  15.179479
Mo  22.282046  22.436419  16.751211
Mo  25.078689  24.037700  16.756548
S   24.151022  22.430980  18.373071
S   26.898076  24.039420  18.331339
S   26.917268  24.033570  15.168289
S   24.153353  22.436571  15.149406
Mo  27.834587  22.445622  16.735252
Mo  30.629615  24.050098  16.749571
S   29.707159  22.468130  18.368388
S   32.466835  24.042706  18.348364
S   32.486331  24.050582  15.142267
S   29.694896  22.478049  15.148176
